Circuit: *** SPICE deck for cell nor{lay} from library FullAdder

Ignoring BSIM parameter XL
Ignoring BSIM parameter XW
Ignoring BSIM parameter XL
Ignoring BSIM parameter XW
Direct Newton iteration for .op point succeeded.

Date: Wed Jun 14 20:49:47 2023
Total elapsed time: 0.143 seconds.

tnom = 27
temp = 27
method = modified trap
totiter = 4884
traniter = 4874
tranpoints = 2156
accept = 1910
rejected = 246
matrix size = 8
fillins = 0
solver = Normal
Matrix Compiler1: 282 bytes object code size  0.2/0.1/[0.1]
Matrix Compiler2: off  [0.1]/0.2/0.1

