Circuit: *** SPICE deck for cell DEC3X8{lay} from library CAM8BIT

WARNING: Node OUT is floating.

WARNING: Less than two connections to node OUT.  This node is used by CLOAD.
Direct Newton iteration for .op point succeeded.

Date: Fri Jul 07 22:39:58 2023
Total elapsed time: 0.929 seconds.

tnom = 27
temp = 27
method = modified trap
totiter = 3934
traniter = 3898
tranpoints = 1504
accept = 1392
rejected = 112
matrix size = 212
fillins = 6
solver = Normal
Thread vector: 152.3/69.4[4] 17.5/12.4[4] 7.3/6.5[2] 2.5/5.8[1]  2592/500
Matrix Compiler1: off  [13.5]/101.2/73.9
Matrix Compiler2: off  [6.2]/8.3/11.8

