Circuit: *** SPICE deck for cell inv{lay} from library CAM8BIT

Direct Newton iteration for .op point succeeded.

Date: Sat Jul 08 16:17:55 2023
Total elapsed time: 0.059 seconds.

tnom = 27
temp = 27
method = modified trap
totiter = 2372
traniter = 2365
tranpoints = 1177
accept = 1145
rejected = 32
matrix size = 13
fillins = 0
solver = Normal
Matrix Compiler1: 960 bytes object code size  0.3/0.6/[0.3]
Matrix Compiler2: off  [0.2]/1.3/0.3

