Circuit: *** SPICE deck for cell nand{lay} from library FullAdder

Ignoring BSIM parameter XL
Ignoring BSIM parameter XW
Ignoring BSIM parameter XL
Ignoring BSIM parameter XW
Direct Newton iteration for .op point succeeded.

Date: Wed Jun 14 20:47:41 2023
Total elapsed time: 0.087 seconds.

tnom = 27
temp = 27
method = modified trap
totiter = 4933
traniter = 4925
tranpoints = 2131
accept = 1901
rejected = 230
matrix size = 8
fillins = 0
solver = Normal
Matrix Compiler1: 300 bytes object code size  0.1/0.1/[0.1]
Matrix Compiler2: 636 bytes object code size  0.1/0.2/[0.1]

