Circuit: *** SPICE deck for cell NAND8B{lay} from library CAM8BIT

Direct Newton iteration for .op point succeeded.

Date: Fri Jul 07 23:46:12 2023
Total elapsed time: 0.357 seconds.

tnom = 27
temp = 27
method = modified trap
totiter = 5187
traniter = 5181
tranpoints = 1915
accept = 1702
rejected = 213
matrix size = 90
fillins = 0
solver = Normal
Matrix Compiler1: 9.75 KB object code size  3.7/2.4/[0.7]
Matrix Compiler2: 10.93 KB object code size  3.1/3.6/[1.4]

