Circuit: *** SPICE deck for cell SRAM9sh{sch} from library CAM8BIT

WARNING: Node OUT is floating.

WARNING: Less than two connections to node OUT.  This node is used by CLOAD.
Direct Newton iteration for .op point succeeded.

Date: Sat Jul 08 15:17:31 2023
Total elapsed time: 0.140 seconds.

tnom = 27
temp = 27
method = modified trap
totiter = 3108
traniter = 3098
tranpoints = 1387
accept = 1292
rejected = 95
matrix size = 50
fillins = 0
solver = Normal
Matrix Compiler1: 5.27 KB object code size  1.4/1.0/[1.0]
Matrix Compiler2: 5.55 KB object code size  0.7/1.4/[0.6]

